@<TRIPOS>MOLECULE
C:\Users\marty\OneDrive\Pulpit\JMOL\ap\programming_project_WCh_2025\mopac_portal\media//1/molecule.out
 11 10 0 0 0
SMALL
MULLIKEN_CHARGES

@<TRIPOS>ATOM
      1 C           0.9583   -0.0513   -0.0889 C.3     1  UNL1        1.0000
      2 C           2.4651   -0.0353   -0.0629 C.3     1  UNL1        2.0000
      3 C           2.9959    0.7334    1.1201 C.3     1  UNL1        3.0000
      4 H           0.5884   -0.6251   -0.9726 H       1  UNL1        4.0000
      5 H           0.5560    0.9888   -0.1492 H       1  UNL1        5.0000
      6 H           0.5551   -0.5297    0.8363 H       1  UNL1        6.0000
      7 H           2.8526    0.4233   -1.0112 H       1  UNL1        7.0000
      8 H           2.8515   -1.0886   -0.0275 H       1  UNL1        8.0000
      9 H           2.6438    1.7930    1.0926 H       1  UNL1        9.0000
     10 H           4.1122    0.7327    1.1144 H       1  UNL1       10.0000
     11 H           2.6486    0.2742    2.0771 H       1  UNL1       11.0000
@<TRIPOS>BOND
     1     7     2    1
     2     4     1    1
     3     5     1    1
     4     1     2    1
     5     1     6    1
     6     2     8    1
     7     2     3    1
     8     9     3    1
     9    10     3    1
    10     3    11    1
