@<TRIPOS>MOLECULE
*****
 11 10 0 0 0
SMALL
GASTEIGER

@<TRIPOS>ATOM
      1 C           0.9591   -0.0455   -0.0791 C.3     1  UNL1       -0.0655
      2 C           2.4791   -0.0455   -0.0791 C.3     1  UNL1       -0.0588
      3 C           2.9857    0.7350    1.1228 C.3     1  UNL1       -0.0655
      4 H           0.6024   -0.5950   -0.9251 H       1  UNL1        0.0230
      5 H           0.6024    0.9619   -0.1319 H       1  UNL1        0.0230
      6 H           0.6024   -0.5035    0.8198 H       1  UNL1        0.0230
      7 H           2.8357    0.4125   -0.9779 H       1  UNL1        0.0260
      8 H           2.8357   -1.0529   -0.0263 H       1  UNL1        0.0260
      9 H           2.6290    1.7425    1.0699 H       1  UNL1        0.0230
     10 H           4.0557    0.7350    1.1228 H       1  UNL1        0.0230
     11 H           2.6291    0.2771    2.0216 H       1  UNL1        0.0230
@<TRIPOS>BOND
     1     1     2    1
     2     2     3    1
     3     1     4    1
     4     1     5    1
     5     1     6    1
     6     2     7    1
     7     2     8    1
     8     3     9    1
     9     3    10    1
    10     3    11    1
