@<TRIPOS>MOLECULE
C:\Users\48796\PycharmProjects\pythonProject\sem4\Cezary\projekt\programming_project_WCh_2025\mopac_portal\media//3/molecule.out
 5 4 0 0 0
SMALL
MULLIKEN_CHARGES

@<TRIPOS>ATOM
      1 C           1.0826   -0.0497   -0.0244 C.3     1  UNL1        1.0000
      2 H           2.1943   -0.0497   -0.0244 H       1  UNL1        2.0000
      3 H           0.7135   -0.4564   -0.9907 H       1  UNL1        3.0000
      4 H           0.7136    0.9905    0.1067 H       1  UNL1        4.0000
      5 H           0.7135   -0.6840    0.8104 H       1  UNL1        5.0000
@<TRIPOS>BOND
     1     3     1    1
     2     2     1    1
     3     1     4    1
     4     1     5    1
