@<TRIPOS>MOLECULE
*****
 5 4 0 0 0
SMALL
GASTEIGER

@<TRIPOS>ATOM
      1 C           1.0832   -0.0498   -0.0244 C.3     1  UNL1       -0.0776
      2 H           2.1532   -0.0498   -0.0244 H       1  UNL1        0.0194
      3 H           0.7265   -0.4408   -0.9544 H       1  UNL1        0.0194
      4 H           0.7265    0.9511    0.1019 H       1  UNL1        0.0194
      5 H           0.7265   -0.6597    0.7792 H       1  UNL1        0.0194
@<TRIPOS>BOND
     1     1     2    1
     2     1     3    1
     3     1     4    1
     4     1     5    1
