@<TRIPOS>MOLECULE
C:\Users\marty\OneDrive\Pulpit\JMOL\ap\programming_project_WCh_2025\mopac_portal\media//2/molecule.out
 14 13 0 0 0
SMALL
MULLIKEN_CHARGES

@<TRIPOS>ATOM
      1 C           1.0460    0.0601   -0.0554 C.3     1  UNL1        1.0000
      2 C           2.5526    0.0763   -0.0542 C.3     1  UNL1        2.0000
      3 C           3.0955    1.4813    0.1033 C.3     1  UNL1        3.0000
      4 C           4.6023    1.4973    0.1048 C.3     1  UNL1        4.0000
      5 H           0.6675   -0.9844   -0.1705 H       1  UNL1        5.0000
      6 H           0.6459    0.6745   -0.8981 H       1  UNL1        6.0000
      7 H           0.6466    0.4761    0.9012 H       1  UNL1        7.0000
      8 H           2.9352   -0.3647   -1.0125 H       1  UNL1        8.0000
      9 H           2.9360   -0.5662    0.7821 H       1  UNL1        9.0000
     10 H           2.7126    1.9224    1.0610 H       1  UNL1       10.0000
     11 H           2.7123    2.1233   -0.7331 H       1  UNL1       11.0000
     12 H           5.0020    0.8820    0.9467 H       1  UNL1       12.0000
     13 H           4.9809    2.5415    0.2207 H       1  UNL1       13.0000
     14 H           5.0015    1.0820   -0.8519 H       1  UNL1       14.0000
@<TRIPOS>BOND
     1     8     2    1
     2     6     1    1
     3    14     4    1
     4    11     3    1
     5     5     1    1
     6     1     2    1
     7     1     7    1
     8     2     3    1
     9     2     9    1
    10     3     4    1
    11     3    10    1
    12     4    13    1
    13     4    12    1
