@<TRIPOS>MOLECULE
*****
 14 13 0 0 0
SMALL
GASTEIGER

@<TRIPOS>ATOM
      1 C           1.0507    0.0666   -0.0547 C.3     1  UNL1       -0.0653
      2 C           2.5707    0.0666   -0.0547 C.3     1  UNL1       -0.0562
      3 C           3.0774    1.4908    0.1039 C.3     1  UNL1       -0.0562
      4 C           4.5974    1.4908    0.1039 C.3     1  UNL1       -0.0653
      5 H           0.6941   -0.9360   -0.1664 H       1  UNL1        0.0230
      6 H           0.6941    0.6646   -0.8672 H       1  UNL1        0.0230
      7 H           0.6941    0.4712    0.8694 H       1  UNL1        0.0230
      8 H           2.9274   -0.3380   -0.9788 H       1  UNL1        0.0263
      9 H           2.9274   -0.5314    0.7577 H       1  UNL1        0.0263
     10 H           2.7207    1.8954    1.0280 H       1  UNL1        0.0263
     11 H           2.7207    2.0888   -0.7086 H       1  UNL1        0.0263
     12 H           4.9541    0.8928    0.9164 H       1  UNL1        0.0230
     13 H           4.9541    2.4934    0.2155 H       1  UNL1        0.0230
     14 H           4.9541    1.0862   -0.8202 H       1  UNL1        0.0230
@<TRIPOS>BOND
     1     1     2    1
     2     2     3    1
     3     3     4    1
     4     1     5    1
     5     1     6    1
     6     1     7    1
     7     2     8    1
     8     2     9    1
     9     3    10    1
    10     3    11    1
    11     4    12    1
    12     4    13    1
    13     4    14    1
